 hist_dov2xy    = .true.
 hist_ndens     = 2
 hist_nhtfrq    =-24
 hist_mfilt     = 1
